/batch
/config,noeldb,1     ! force off writing results to database
*get,_wallstrt,active,,time,wall
! ANSYS input file written by Workbench version 2020 R1
! File used for geometry attach: C:\Users\mofid\Downloads\Ansys_Static_Structural\truss_2.stp
/title,Ansys_Static_Structural--Static Structural (A5)
*DIM,_wb_ProjectScratch_dir,string,248
_wb_ProjectScratch_dir(1) = 'C:\Users\mofid\Downloads\Ansys_Static_Structural\_ProjectScratch\Scr041B\'
*DIM,_wb_SolverFiles_dir,string,248
_wb_SolverFiles_dir(1) = 'C:\Users\mofid\Downloads\Ansys_Static_Structural\Ansys_Static_Structural_files\dp0\SYS\MECH\'
*DIM,_wb_userfiles_dir,string,248
_wb_userfiles_dir(1) = 'C:\Users\mofid\Downloads\Ansys_Static_Structural\Ansys_Static_Structural_files\user_files\'
/com,--- Data in consistent MKS units. See Solving Units in the help system for more information.
/units,MKS
/nopr
/wb,file,start              !  signify a WB generated input file
/prep7
! Turn off shape checking because checks already performed inside WB mesher.
! See help system for more information.
SHPP,OFF,,NOWARN
/nolist
etcon,set             ! allow ANSYS to choose best KEYOP's for 180x elements
/com,*********** Nodes for the whole assembly ***********
nblock,3,,10340
(1i9,3e20.9e3)
        1    -2.481048693E-02     1.200000000E-02     6.000000000E-03
        2    -3.081048693E-02     1.200000000E-02     6.000000000E-03
        3     4.840102947E-02     1.232464313E-01     6.000000000E-03
        4     3.619911007E-02     1.047053594E-01     6.000000000E-03
        5     2.399719067E-02     8.616428752E-02     6.000000000E-03
        6     1.179527127E-02     6.762321564E-02     6.000000000E-03
        7    -4.066481316E-04     4.908214376E-02     6.000000000E-03
        8    -1.260856753E-02     3.054107188E-02     6.000000000E-03
        9     4.840102947E-02     1.292464313E-01     6.000000000E-03
       10     5.440102947E-02     1.292464313E-01     6.000000000E-03
       11     5.440102947E-02     1.232464313E-01     6.000000000E-03
       12     1.276125459E-01     1.200000000E-02     6.000000000E-03
       13     1.154106265E-01     3.054107188E-02     6.000000000E-03
       14     1.032087071E-01     4.908214376E-02     6.000000000E-03
       15     9.100678767E-02     6.762321564E-02     6.000000000E-03
       16     7.880486827E-02     8.616428752E-02     6.000000000E-03
       17     6.660294887E-02     1.047053594E-01     6.000000000E-03
       18     5.440102947E-02     1.200000000E-02     6.000000000E-03
       19     7.880486827E-02     1.200000000E-02     6.000000000E-03
       20     1.032087071E-01     1.200000000E-02     6.000000000E-03
! ... 9381 like lines cut
/wb,elem,start            !  set before creation of elements
/com,*********** Elements for Body 1 "truss_2-FreeParts|1" ***********
et,1,187
eblock,19,solid,,3445
(19i9)
        1        1        1        1        0        0        0        0       10        0        1      283     1214     1960     1953     3860     8380     3862     3861
     8379     9400
        1        1        1        1        0        0        0        0       10        0        2      277     1960      283     1214     3830     3862     3822     3825
     8380     3860
        1        1        1        1        0        0        0        0       10        0        3       10      283     1960     1953     2043     3862     2050     2049
     3861     9400
        1        1        1        1        0        0        0        0       10        0        4       10      283      277     1960     2043     3822     2042     2050
     3862     3830
        1        1        1        1        0        0        0        0       10        0        5      185     1960     1292     1303     3352     8437     3349     3350
     8445     8436
        1        1        1        1        0        0        0        0       10        0        6       11     1292     1960     1303     2059     8437     2065     2060
     8436     8445
        1        1        1        1        0        0        0        0       10        0        7     1214     1215     1960     1953     8378     8383     8380     8379
     8382     9400
        1        1        1        1        0        0        0        0       10        0        8      277     1215     1960     1214     3826     8383     3830     3825
     8378     8380
        1        1        1        1        0        0        0        0       10        0        9       10      277       11     1960     2042     2052     2038     2050
     3830     2065
        1        1        1        1        0        0        0        0       10        0       10       10     1960      984     1953     2050     7991     2045     2049
     9400     7990
! ... 6871 like lines cut
!Material Id = {3DF78D27-28D5-4B47-9FE4-3974695CA839}
/wb,elem,end               !  done creating elements
/com,*********** Send User Defined Coordinate System(s) ***********
csys,0
toffst,273.15,  ! Temperature offset from absolute zero
/com,*********** Set Reference Temperature ***********
tref,22.
/wb,mat,start              !  starting to send materials
/com,*********** Send Materials ***********
Temperature = 'TEMP' ! Temperature
MP,DENS,1,7850,	! kg m^-3
MP,ALPX,1,1.2e-05,	! C^-1
MP,C,1,434,	! J kg^-1 C^-1
MP,KXX,1,60.5,	! W m^-1 C^-1
MP,RSVX,1,1.7e-07,	! kg m^3 A^-2 s^-3
MP,EX,1,200000000000,	! Pa
MP,NUXY,1,0.3,
MP,MURX,1,10000,

/wb,mat,end                !  done sending materials
!************************* Model Summary ********************
!truss_2-FreeParts|1,	Structural Steel,	matid,	1
!************************* End Model Summary ********************
! get the diagonal of the bounding box. Needed later for other things
*get,_xmin,node,,mnloc,x
*get,_ymin,node,,mnloc,y
*get,_zmin,node,,mnloc,z
*get,_xmax,node,,mxloc,x
*get,_ymax,node,,mxloc,y
*get,_zmax,node,,mxloc,z
_ASMDIAG=(_xmax-_xmin)*(_xmax-_xmin)+(_ymax-_ymin)*(_ymax-_ymin)+(_zmax-_zmin)*(_zmax-_zmin)
_ASMDIAG=SQRT(_ASMDIAG)
/wb,contact,start          !  starting to send contact
/wb,contact,end            !  done creating contacts
CMBLOCK,C_12    ,NODE,        6
(8i10)
       734       802      1701      6675      6678      7045
CMBLOCK,C_2     ,NODE,        6
(8i10)
       860       861      1770      7341      7342      7346
CMBLOCK,C_3     ,NODE,        6
(8i10)
       889       903       904      7489      7490      7558
CMBLOCK,C_4     ,NODE,        6
(8i10)
       806       846      1763      7063      7068      7282
CMBLOCK,C_5     ,NODE,        6
(8i10)
       796      1549      1760      7013      7015      8876
CMBLOCK,C_7     ,NODE,        6
(8i10)
        10        82       984      2039      2045      2590
CMBLOCK,C_8     ,NODE,        6
(8i10)
        93       114      1053      2656      2658      2809
CMBLOCK,C_9     ,NODE,        6
(8i10)
        86       154      1046      2610      2614      3139
CMBLOCK,C_10    ,NODE,        6
(8i10)
      1029      1428      1432      8085      8086      8645
/golist
/wb,load,start             !  starting to send loads
/com,*********** Fixed Supports ***********
CMBLOCK,_FIXEDSU,NODE,      312
(8i10)
         2        75        77        78        79        80        81        96
        97        98        99       100       194       195       196       197
       198       213       214       215       216       217       218       219
       221       222       224       438       439       440       598       599
       600       601       602       617       618       619       620       621
       622       623       626       797       799       800       801       816
       817       818       819       820       972      1038      1039      1040
      1041      1042      1057      1058      1059      1060      1061      1138
      1139      1140      1141      1142      1157      1158      1159      1160
      1161      1162      1163      1165      1544      1545      1546      1547
      1548      1563      1564      1565      1566      1567      1568      1569
      1570      1572      1755      1756      1757      1758      1759      1774
      1775      1776      1777      1778      1931      1932      1933      1934
      1935      1936      1937      1938      1979      1980      2549      2554
      2563      2567      2568      2570      2571      2572      2573      2575
      2576      2577      2578      2581      2582      2583      2585      2586
      2587      2674      2676      2677      2678      2679      2681      2682
      2683      2684      2686      2687      2688      2689      2691      2692
      2693      2694      2696      2697      2698      3396      3398      3399
      3401      3403      3404      3406      3408      3409      3411      3413
! ... 19 like lines cut

cmsel,s,_FIXEDSU
d,all,all
nsel,all
/com,*********** Define Force Using Surface Effect Elements ***********
local,12,0,0.,0.,0.,0.,0.,0.
csys,0
et,2,156
keyop,2,5,1         !  No orientation node
eblock,10,,,7
(15i9)
     7454        2        2        2       12        9     1473     2036
     7455        2        2        2       12     1472     1473     8731
     7456        2        2        2       12      535     1472     5384
     7457        2        2        2       12     1474      535     5385
     7458        2        2        2       12     1474      536     5391
     7459        2        2        2       12     1475      536     5392
     7460        2        2        2       12      534     1475     5376
-1
esel,s,type,,2
keyop,2,2,1                ! Apply load in local coordinate system
keyop,2,7,1                ! Use original area so load is constant in large deformation
esel,all
/gst,on,on
fini
*get,_numnode,node,0,count
*get,_numelem,elem,0,count
*get, _MAXELEMNUM, elem, 0, NUM, MAX
*get, _MAXNODENUM, node, 0, NUM, MAX
*get, _MAXELEMTYPE, etyp, 0, NUM, MAX
*get, _MAXREALCONST, real, 0, NUM, MAX
/go
/wb,load,end               !  done creating loads
/com,--- Number of total nodes = %_numnode%
/com,--- Number of contact elements = 7
/com,--- Number of spring elements = 0
/com,--- Number of bearing elements = 0
/com,--- Number of solid elements = 3445
/com,--- Number of condensed parts = 0
/com,--- Number of total elements = %_numelem%
*get,_wallbsol,active,,time,wall
/com,****************************************************************************
/com,*************************    SOLUTION       ********************************
/com,****************************************************************************
/solu
antype,0                   ! static analysis
_thickRatio=  0     ! Ratio of thick parts in the model
eqsl,sparse,,,,,1
cntr,print,1               ! print out contact info and also make no initial contact an error
dmpoption,emat,no             ! Don't combine emat file for DANSYS
dmpoption,esav,no             ! Don't combine esav file for DANSYS
nldiag,cont,iter           ! print out contact info each equilibrium iteration
rescontrol,,none                 ! Do not keep any restart files
/com,****************************************************
/com,******************* SOLVE FOR LS 1 OF 1 ****************
esel,s,type,,2
nsle
sfe,all,1,pres,1,0.
sfe,all,2,pres,1,0.
sfe,all,3,pres,1,14705.8823529412
nsel,all
esel,all
/nopr
/gopr
nsub,1,1,1
time,1.
outres,erase
outres,all,none
outres,nsol,all,
outres,rsol,all
outres,eangl,all
outres,etmp,all
outres,veng,all
outres,strs,all,
outres,epel,all,
outres,eppl,all,
outres,cont,all,
! *********** WB SOLVE COMMAND ***********
! check interactive state
*get,ANSINTER_,active,,int
*if,ANSINTER_,ne,0,then
/eof
*endif
solve
/com *************** Write FE CONNECTORS ********* 
CEWRITE,file,ce,,INTE
/com,****************************************************
/com,*************** FINISHED SOLVE FOR LS 1 *************
*get,_wallasol,active,,time,wall
/nopr
*get,_numnode,node,0,count
*get,_numelem,elem,0,count
*get, _MAXELEMNUM, elem, 0, NUM, MAX
*get, _MAXNODENUM, node, 0, NUM, MAX,,,INTERNAL
*get, _MAXELEMTYPE, etyp, 0, NUM, MAX
*get, _MAXREALCONST, real, 0, NUM, MAX
/gopr
/post1
xmlo,ENCODING,ISO-8859-1
xmlo,parm
/xml,parm,xml
fini
/gopr
*get,_walldone,active,,time,wall
_preptime=(_wallbsol-_wallstrt)*3600
_solvtime=(_wallasol-_wallbsol)*3600
_posttime=(_walldone-_wallasol)*3600
_totaltim=(_walldone-_wallstrt)*3600
*get,_dlbratio,active,0,solu,dlbr
*get,_combtime,active,0,solu,comb
/com,--- Number of total nodes = %_numnode%
/com,--- Number of total elements = %_numelem%
/com,--- Element load balance ratio = %_dlbratio%
/com,--- Time to combine distributed files = %_combtime%
/wb,file,end               ! done with WB generated input
